Real-World_Graph/Germany_grid_data/0.6/matpower.m
function mpc = matpower

%% MATPOWER Case Format : Version 2
mpc.version = '2';

%%%%-----  Power Flow Data  -----%%%%
%%%% system MVA base
mpc.baseMVA = 400;

%%%% bus data
%%	bus_i	type	Pd	Qd	Gs	Bs	area	Vm	Va	baseKV	zone	Vmax	Vmin	lam_P	lam_Q	mu_Vmax	mu_Vmin
mpc.bus = [
	2	1	172.034	0	0	0	1	1	0	380	1	1.05	0.95	0.0000	0.0000	0.0000	0.0000;
	4	1	588.63	0	0	0	1	1	0	380	1	1.05	0.95	0.0000	0.0000	0.0000	0.0000;
	5	1	273.9	0	0	0	1	1	0	380	1	1.05	0.95	0.0000	0.0000	0.0000	0.0000;
	6	1	263.69	0	0	0	1	1	0	380	1	1.05	0.95	0.0000	0.0000	0.0000	0.0000;
	7	1	1610.13	0	0	0	1	1	0	380	1	1.05	0.95	0.0000	0.0000	0.0000	0.0000;
	8	1	310.418	0	0	0	1	1	0	380	1	1.05	0.95	0.0000	0.0000	0.0000	0.0000;
	9	1	201.089	0	0	0	1	1	0	380	1	1.05	0.95	0.0000	0.0000	0.0000	0.0000;
	10	1	200.273	0	0	0	1	1	0	380	1	1.05	0.95	0.0000	0.0000	0.0000	0.0000;
	11	2	-81.1168	0	0	0	1	1	0	380	1	1.05	0.95	0.0000	0.0000	0.0000	0.0000;
	12	2	-88.5493	0	0	0	1	1	0	380	1	1.05	0.95	0.0000	0.0000	0.0000	0.0000;
	13	1	419.339	0	0	0	1	1	0	380	1	1.05	0.95	0.0000	0.0000	0.0000	0.0000;
	14	1	208.374	0	0	0	1	1	0	380	1	1.05	0.95	0.0000	0.0000	0.0000	0.0000;
	15	2	-93.6232	0	0	0	1	1	0	380	1	1.05	0.95	0.0000	0.0000	0.0000	0.0000;
	16	1	272.379	0	0	0	1	1	0	380	1	1.05	0.95	0.0000	0.0000	0.0000	0.0000;
	17	1	270.458	0	0	0	1	1	0	380	1	1.05	0.95	0.0000	0.0000	0.0000	0.0000;
	18	2	-76.5448	0	0	0	1	1	0	380	1	1.05	0.95	0.0000	0.0000	0.0000	0.0000;
	19	2	-164.438	0	0	0	1	1	0	380	1	1.05	0.95	0.0000	0.0000	0.0000	0.0000;
	20	1	577.384	0	0	0	1	1	0	380	1	1.05	0.95	0.0000	0.0000	0.0000	0.0000;
	21	1	71.9195	0	0	0	1	1	0	380	1	1.05	0.95	0.0000	0.0000	0.0000	0.0000;
	22	1	-68.2189	0	0	0	1	1	0	380	1	1.05	0.95	0.0000	0.0000	0.0000	0.0000;
	23	1	645.537	0	0	0	1	1	0	380	1	1.05	0.95	0.0000	0.0000	0.0000	0.0000;
	24	1	180.37	0	0	0	1	1	0	380	1	1.05	0.95	0.0000	0.0000	0.0000	0.0000;
	25	1	604.322	0	0	0	1	1	0	380	1	1.05	0.95	0.0000	0.0000	0.0000	0.0000;
	26	1	291.794	0	0	0	1	1	0	380	1	1.05	0.95	0.0000	0.0000	0.0000	0.0000;
	27	2	-96.4398	0	0	0	1	1	0	380	1	1.05	0.95	0.0000	0.0000	0.0000	0.0000;
	28	1	359.739	0	0	0	1	1	0	380	1	1.05	0.95	0.0000	0.0000	0.0000	0.0000;
	29	2	-63.8734	0	0	0	1	1	0	380	1	1.05	0.95	0.0000	0.0000	0.0000	0.0000;
	30	1	235.761	0	0	0	1	1	0	380	1	1.05	0.95	0.0000	0.0000	0.0000	0.0000;
	32	2	-456.632	0	0	0	1	1	0	380	1	1.05	0.95	0.0000	0.0000	0.0000	0.0000;
	33	1	482.881	0	0	0	1	1	0	380	1	1.05	0.95	0.0000	0.0000	0.0000	0.0000;
	34	1	-45.991	0	0	0	1	1	0	380	1	1.05	0.95	0.0000	0.0000	0.0000	0.0000;
	35	1	567.701	0	0	0	1	1	0	380	1	1.05	0.95	0.0000	0.0000	0.0000	0.0000;
	36	1	508.409	0	0	0	1	1	0	380	1	1.05	0.95	0.0000	0.0000	0.0000	0.0000;
	37	1	621.409	0	0	0	1	1	0	380	1	1.05	0.95	0.0000	0.0000	0.0000	0.0000;
	38	1	283.408	0	0	0	1	1	0	380	1	1.05	0.95	0.0000	0.0000	0.0000	0.0000;
	39	1	-116.889	0	0	0	1	1	0	380	1	1.05	0.95	0.0000	0.0000	0.0000	0.0000;
	41	1	174.332	0	0	0	1	1	0	380	1	1.05	0.95	0.0000	0.0000	0.0000	0.0000;
	42	2	-156.774	0	0	0	1	1	0	380	1	1.05	0.95	0.0000	0.0000	0.0000	0.0000;
	43	1	297.35	0	0	0	1	1	0	380	1	1.05	0.95	0.0000	0.0000	0.0000	0.0000;
	44	2	-105.868	0	0	0	1	1	0	380	1	1.05	0.95	0.0000	0.0000	0.0000	0.0000;
	45	1	347.73	0	0	0	1	1	0	380	1	1.05	0.95	0.0000	0.0000	0.0000	0.0000;
	46	1	662.4	0	0	0	1	1	0	380	1	1.05	0.95	0.0000	0.0000	0.0000	0.0000;
	47	1	619.95	0	0	0	1	1	0	380	1	1.05	0.95	0.0000	0.0000	0.0000	0.0000;
	48	2	-58.8081	0	0	0	1	1	0	380	1	1.05	0.95	0.0000	0.0000	0.0000	0.0000;
	49	1	311.7	0	0	0	1	1	0	380	1	1.05	0.95	0.0000	0.0000	0.0000	0.0000;
	50	1	203.384	0	0	0	1	1	0	380	1	1.05	0.95	0.0000	0.0000	0.0000	0.0000;
	51	1	617.932	0	0	0	1	1	0	380	1	1.05	0.95	0.0000	0.0000	0.0000	0.0000;
	52	2	-115.793	0	0	0	1	1	0	380	1	1.05	0.95	0.0000	0.0000	0.0000	0.0000;
	53	1	375.473	0	0	0	1	1	0	380	1	1.05	0.95	0.0000	0.0000	0.0000	0.0000;
	54	2	1609.95	0	0	0	1	1	0	380	1	1.05	0.95	0.0000	0.0000	0.0000	0.0000;
	55	1	245.908	0	0	0	1	1	0	380	1	1.05	0.95	0.0000	0.0000	0.0000	0.0000;
	56	2	-308.737	0	0	0	1	1	0	380	1	1.05	0.95	0.0000	0.0000	0.0000	0.0000;
	57	1	627.203	0	0	0	1	1	0	380	1	1.05	0.95	0.0000	0.0000	0.0000	0.0000;
	58	1	243.941	0	0	0	1	1	0	380	1	1.05	0.95	0.0000	0.0000	0.0000	0.0000;
	59	2	-73.3145	0	0	0	1	1	0	380	1	1.05	0.95	0.0000	0.0000	0.0000	0.0000;
	60	2	-269.828	0	0	0	1	1	0	380	1	1.05	0.95	0.0000	0.0000	0.0000	0.0000;
	61	1	322.065	0	0	0	1	1	0	380	1	1.05	0.95	0.0000	0.0000	0.0000	0.0000;
	62	1	203.81	0	0	0	1	1	0	380	1	1.05	0.95	0.0000	0.0000	0.0000	0.0000;
	63	1	1061.22	0	0	0	1	1	0	380	1	1.05	0.95	0.0000	0.0000	0.0000	0.0000;
	64	1	287.739	0	0	0	1	1	0	380	1	1.05	0.95	0.0000	0.0000	0.0000	0.0000;
	65	1	974.789	0	0	0	1	1	0	380	1	1.05	0.95	0.0000	0.0000	0.0000	0.0000;
	208	2	-96.534	0	0	0	1	1	0	380	1	1.05	0.95	0.0000	0.0000	0.0000	0.0000;
	66	1	-91.3274	0	0	0	1	1	0	380	1	1.05	0.95	0.0000	0.0000	0.0000	0.0000;
	67	1	137.406	0	0	0	1	1	0	380	1	1.05	0.95	0.0000	0.0000	0.0000	0.0000;
	68	1	148.819	0	0	0	1	1	0	380	1	1.05	0.95	0.0000	0.0000	0.0000	0.0000;
	69	1	-307.13	0	0	0	1	1	0	380	1	1.05	0.95	0.0000	0.0000	0.0000	0.0000;
	70	1	306.803	0	0	0	1	1	0	380	1	1.05	0.95	0.0000	0.0000	0.0000	0.0000;
	71	1	272.662	0	0	0	1	1	0	380	1	1.05	0.95	0.0000	0.0000	0.0000	0.0000;
	72	1	584.28	0	0	0	1	1	0	380	1	1.05	0.95	0.0000	0.0000	0.0000	0.0000;
	73	3	-177.197	0	0	0	1	1	0	380	1	1.05	0.95	0.0000	0.0000	0.0000	0.0000;
	74	1	628.667	0	0	0	1	1	0	380	1	1.05	0.95	0.0000	0.0000	0.0000	0.0000;
	75	1	315.499	0	0	0	1	1	0	380	1	1.05	0.95	0.0000	0.0000	0.0000	0.0000;
	76	1	377.345	0	0	0	1	1	0	380	1	1.05	0.95	0.0000	0.0000	0.0000	0.0000;
	165	2	-476.401	0	0	0	1	1	0	380	1	1.05	0.95	0.0000	0.0000	0.0000	0.0000;
	166	1	-46.2553	0	0	0	1	1	0	380	1	1.05	0.95	0.0000	0.0000	0.0000	0.0000;
	79	2	-48.8215	0	0	0	1	1	0	380	1	1.05	0.95	0.0000	0.0000	0.0000	0.0000;
	80	1	0	0	0	0	1	1	0	380	1	1.05	0.95	0.0000	0.0000	0.0000	0.0000;
	81	1	292.208	0	0	0	1	1	0	380	1	1.05	0.95	0.0000	0.0000	0.0000	0.0000;
	82	1	276.1	0	0	0	1	1	0	380	1	1.05	0.95	0.0000	0.0000	0.0000	0.0000;
	83	1	625.519	0	0	0	1	1	0	380	1	1.05	0.95	0.0000	0.0000	0.0000	0.0000;
	84	1	282.21	0	0	0	1	1	0	380	1	1.05	0.95	0.0000	0.0000	0.0000	0.0000;
	85	1	-144.112	0	0	0	1	1	0	380	1	1.05	0.95	0.0000	0.0000	0.0000	0.0000;
	86	2	-32.6679	0	0	0	1	1	0	380	1	1.05	0.95	0.0000	0.0000	0.0000	0.0000;
	87	1	33.2813	0	0	0	1	1	0	380	1	1.05	0.95	0.0000	0.0000	0.0000	0.0000;
	88	1	210.993	0	0	0	1	1	0	380	1	1.05	0.95	0.0000	0.0000	0.0000	0.0000;
	89	1	264.388	0	0	0	1	1	0	380	1	1.05	0.95	0.0000	0.0000	0.0000	0.0000;
	90	1	677.843	0	0	0	1	1	0	380	1	1.05	0.95	0.0000	0.0000	0.0000	0.0000;
	91	2	-66.755	0	0	0	1	1	0	380	1	1.05	0.95	0.0000	0.0000	0.0000	0.0000;
	92	1	282.6	0	0	0	1	1	0	380	1	1.05	0.95	0.0000	0.0000	0.0000	0.0000;
	93	2	-44.215	0	0	0	1	1	0	380	1	1.05	0.95	0.0000	0.0000	0.0000	0.0000;
	94	1	595.121	0	0	0	1	1	0	380	1	1.05	0.95	0.0000	0.0000	0.0000	0.0000;
	95	2	-282.494	0	0	0	1	1	0	380	1	1.05	0.95	0.0000	0.0000	0.0000	0.0000;
	96	1	604.418	0	0	0	1	1	0	380	1	1.05	0.95	0.0000	0.0000	0.0000	0.0000;
	97	2	-101.28	0	0	0	1	1	0	380	1	1.05	0.95	0.0000	0.0000	0.0000	0.0000;
	98	1	413.406	0	0	0	1	1	0	380	1	1.05	0.95	0.0000	0.0000	0.0000	0.0000;
	100	1	216.627	0	0	0	1	1	0	380	1	1.05	0.95	0.0000	0.0000	0.0000	0.0000;
	101	1	375.117	0	0	0	1	1	0	380	1	1.05	0.95	0.0000	0.0000	0.0000	0.0000;
	102	1	407.233	0	0	0	1	1	0	380	1	1.05	0.95	0.0000	0.0000	0.0000	0.0000;
	103	2	-122.439	0	0	0	1	1	0	380	1	1.05	0.95	0.0000	0.0000	0.0000	0.0000;
	104	1	208.719	0	0	0	1	1	0	380	1	1.05	0.95	0.0000	0.0000	0.0000	0.0000;
	105	1	-169.355	0	0	0	1	1	0	380	1	1.05	0.95	0.0000	0.0000	0.0000	0.0000;
	106	2	-294.994	0	0	0	1	1	0	380	1	1.05	0.95	0.0000	0.0000	0.0000	0.0000;
	107	2	-384.564	0	0	0	1	1	0	380	1	1.05	0.95	0.0000	0.0000	0.0000	0.0000;
	108	2	-158.064	0	0	0	1	1	0	380	1	1.05	0.95	0.0000	0.0000	0.0000	0.0000;
	109	1	333.734	0	0	0	1	1	0	380	1	1.05	0.95	0.0000	0.0000	0.0000	0.0000;
	110	1	-39.293	0	0	0	1	1	0	380	1	1.05	0.95	0.0000	0.0000	0.0000	0.0000;
	111	1	338.878	0	0	0	1	1	0	380	1	1.05	0.95	0.0000	0.0000	0.0000	0.0000;
	112	1	299.684	0	0	0	1	1	0	380	1	1.05	0.95	0.0000	0.0000	0.0000	0.0000;
	31	2	-126.931	0	0	0	1	1	0	380	1	1.05	0.95	0.0000	0.0000	0.0000	0.0000;
	114	1	661.052	0	0	0	1	1	0	380	1	1.05	0.95	0.0000	0.0000	0.0000	0.0000;
	115	2	-66.9062	0	0	0	1	1	0	380	1	1.05	0.95	0.0000	0.0000	0.0000	0.0000;
	116	1	326.431	0	0	0	1	1	0	380	1	1.05	0.95	0.0000	0.0000	0.0000	0.0000;
	117	1	237.917	0	0	0	1	1	0	380	1	1.05	0.95	0.0000	0.0000	0.0000	0.0000;
	118	1	168.261	0	0	0	1	1	0	380	1	1.05	0.95	0.0000	0.0000	0.0000	0.0000;
	119	1	341.382	0	0	0	1	1	0	380	1	1.05	0.95	0.0000	0.0000	0.0000	0.0000;
	120	1	622.671	0	0	0	1	1	0	380	1	1.05	0.95	0.0000	0.0000	0.0000	0.0000;
	121	1	304.886	0	0	0	1	1	0	380	1	1.05	0.95	0.0000	0.0000	0.0000	0.0000;
	122	1	-65.0126	0	0	0	1	1	0	380	1	1.05	0.95	0.0000	0.0000	0.0000	0.0000;
	123	2	-207.34	0	0	0	1	1	0	380	1	1.05	0.95	0.0000	0.0000	0.0000	0.0000;
	182	1	427.444	0	0	0	1	1	0	380	1	1.05	0.95	0.0000	0.0000	0.0000	0.0000;
	124	1	545.071	0	0	0	1	1	0	380	1	1.05	0.95	0.0000	0.0000	0.0000	0.0000;
	125	2	-260.748	0	0	0	1	1	0	380	1	1.05	0.95	0.0000	0.0000	0.0000	0.0000;
	40	1	294.06	0	0	0	1	1	0	380	1	1.05	0.95	0.0000	0.0000	0.0000	0.0000;
	127	1	-140.245	0	0	0	1	1	0	380	1	1.05	0.95	0.0000	0.0000	0.0000	0.0000;
	128	2	-228.097	0	0	0	1	1	0	380	1	1.05	0.95	0.0000	0.0000	0.0000	0.0000;
	129	1	-63.3101	0	0	0	1	1	0	380	1	1.05	0.95	0.0000	0.0000	0.0000	0.0000;
	99	1	352.08	0	0	0	1	1	0	380	1	1.05	0.95	0.0000	0.0000	0.0000	0.0000;
	131	1	240.841	0	0	0	1	1	0	380	1	1.05	0.95	0.0000	0.0000	0.0000	0.0000;
	132	2	-291.05	0	0	0	1	1	0	380	1	1.05	0.95	0.0000	0.0000	0.0000	0.0000;
	133	1	314.026	0	0	0	1	1	0	380	1	1.05	0.95	0.0000	0.0000	0.0000	0.0000;
	134	1	224.447	0	0	0	1	1	0	380	1	1.05	0.95	0.0000	0.0000	0.0000	0.0000;
	135	1	280.792	0	0	0	1	1	0	380	1	1.05	0.95	0.0000	0.0000	0.0000	0.0000;
	136	2	-491.805	0	0	0	1	1	0	380	1	1.05	0.95	0.0000	0.0000	0.0000	0.0000;
	130	2	-281.546	0	0	0	1	1	0	380	1	1.05	0.95	0.0000	0.0000	0.0000	0.0000;
	138	1	1350.54	0	0	0	1	1	0	380	1	1.05	0.95	0.0000	0.0000	0.0000	0.0000;
	137	1	313.232	0	0	0	1	1	0	380	1	1.05	0.95	0.0000	0.0000	0.0000	0.0000;
	140	2	-124.394	0	0	0	1	1	0	380	1	1.05	0.95	0.0000	0.0000	0.0000	0.0000;
	141	1	416.984	0	0	0	1	1	0	380	1	1.05	0.95	0.0000	0.0000	0.0000	0.0000;
	142	1	79.3486	0	0	0	1	1	0	380	1	1.05	0.95	0.0000	0.0000	0.0000	0.0000;
	143	2	-108.721	0	0	0	1	1	0	380	1	1.05	0.95	0.0000	0.0000	0.0000	0.0000;
	144	2	-83.97	0	0	0	1	1	0	380	1	1.05	0.95	0.0000	0.0000	0.0000	0.0000;
	145	1	142.817	0	0	0	1	1	0	380	1	1.05	0.95	0.0000	0.0000	0.0000	0.0000;
	147	1	367.014	0	0	0	1	1	0	380	1	1.05	0.95	0.0000	0.0000	0.0000	0.0000;
	148	2	-70.8644	0	0	0	1	1	0	380	1	1.05	0.95	0.0000	0.0000	0.0000	0.0000;
	149	1	-1.33165	0	0	0	1	1	0	380	1	1.05	0.95	0.0000	0.0000	0.0000	0.0000;
	150	2	-754.576	0	0	0	1	1	0	380	1	1.05	0.95	0.0000	0.0000	0.0000	0.0000;
	151	1	615.45	0	0	0	1	1	0	380	1	1.05	0.95	0.0000	0.0000	0.0000	0.0000;
	152	1	0	0	0	0	1	1	0	380	1	1.05	0.95	0.0000	0.0000	0.0000	0.0000;
	153	2	-215.401	0	0	0	1	1	0	380	1	1.05	0.95	0.0000	0.0000	0.0000	0.0000;
	154	1	227.307	0	0	0	1	1	0	380	1	1.05	0.95	0.0000	0.0000	0.0000	0.0000;
	155	1	325.979	0	0	0	1	1	0	380	1	1.05	0.95	0.0000	0.0000	0.0000	0.0000;
	157	1	402.458	0	0	0	1	1	0	380	1	1.05	0.95	0.0000	0.0000	0.0000	0.0000;
	158	2	-56.1996	0	0	0	1	1	0	380	1	1.05	0.95	0.0000	0.0000	0.0000	0.0000;
	159	2	-313.21	0	0	0	1	1	0	380	1	1.05	0.95	0.0000	0.0000	0.0000	0.0000;
	160	1	-373.891	0	0	0	1	1	0	380	1	1.05	0.95	0.0000	0.0000	0.0000	0.0000;
	161	1	169.751	0	0	0	1	1	0	380	1	1.05	0.95	0.0000	0.0000	0.0000	0.0000;
	162	1	-37.2383	0	0	0	1	1	0	380	1	1.05	0.95	0.0000	0.0000	0.0000	0.0000;
	146	1	283.523	0	0	0	1	1	0	380	1	1.05	0.95	0.0000	0.0000	0.0000	0.0000;
	156	1	356.138	0	0	0	1	1	0	380	1	1.05	0.95	0.0000	0.0000	0.0000	0.0000;
	77	1	59.5774	0	0	0	1	1	0	380	1	1.05	0.95	0.0000	0.0000	0.0000	0.0000;
	78	1	98.2447	0	0	0	1	1	0	380	1	1.05	0.95	0.0000	0.0000	0.0000	0.0000;
	167	2	-198.774	0	0	0	1	1	0	380	1	1.05	0.95	0.0000	0.0000	0.0000	0.0000;
	168	1	103.396	0	0	0	1	1	0	380	1	1.05	0.95	0.0000	0.0000	0.0000	0.0000;
	169	1	383.933	0	0	0	1	1	0	380	1	1.05	0.95	0.0000	0.0000	0.0000	0.0000;
	3	1	321.787	0	0	0	1	1	0	380	1	1.05	0.95	0.0000	0.0000	0.0000	0.0000;
	171	1	317.091	0	0	0	1	1	0	380	1	1.05	0.95	0.0000	0.0000	0.0000	0.0000;
	172	1	308.492	0	0	0	1	1	0	380	1	1.05	0.95	0.0000	0.0000	0.0000	0.0000;
	173	2	-230.872	0	0	0	1	1	0	380	1	1.05	0.95	0.0000	0.0000	0.0000	0.0000;
	174	1	296.315	0	0	0	1	1	0	380	1	1.05	0.95	0.0000	0.0000	0.0000	0.0000;
	175	2	-757.785	0	0	0	1	1	0	380	1	1.05	0.95	0.0000	0.0000	0.0000	0.0000;
	176	2	-129.718	0	0	0	1	1	0	380	1	1.05	0.95	0.0000	0.0000	0.0000	0.0000;
	177	1	-804.432	0	0	0	1	1	0	380	1	1.05	0.95	0.0000	0.0000	0.0000	0.0000;
	178	1	-66.2084	0	0	0	1	1	0	380	1	1.05	0.95	0.0000	0.0000	0.0000	0.0000;
	179	2	-147.754	0	0	0	1	1	0	380	1	1.05	0.95	0.0000	0.0000	0.0000	0.0000;
	180	2	-207.967	0	0	0	1	1	0	380	1	1.05	0.95	0.0000	0.0000	0.0000	0.0000;
	181	2	-141.988	0	0	0	1	1	0	380	1	1.05	0.95	0.0000	0.0000	0.0000	0.0000;
	139	1	1345.82	0	0	0	1	1	0	380	1	1.05	0.95	0.0000	0.0000	0.0000	0.0000;
	163	1	-133.165	0	0	0	1	1	0	380	1	1.05	0.95	0.0000	0.0000	0.0000	0.0000;
	183	1	268.281	0	0	0	1	1	0	380	1	1.05	0.95	0.0000	0.0000	0.0000	0.0000;
	184	1	55.6146	0	0	0	1	1	0	380	1	1.05	0.95	0.0000	0.0000	0.0000	0.0000;
	185	1	563.014	0	0	0	1	1	0	380	1	1.05	0.95	0.0000	0.0000	0.0000	0.0000;
	186	1	189.623	0	0	0	1	1	0	380	1	1.05	0.95	0.0000	0.0000	0.0000	0.0000;
	126	1	-537.447	0	0	0	1	1	0	380	1	1.05	0.95	0.0000	0.0000	0.0000	0.0000;
	113	1	186.309	0	0	0	1	1	0	380	1	1.05	0.95	0.0000	0.0000	0.0000	0.0000;
	164	1	125.287	0	0	0	1	1	0	380	1	1.05	0.95	0.0000	0.0000	0.0000	0.0000;
	188	1	327.695	0	0	0	1	1	0	380	1	1.05	0.95	0.0000	0.0000	0.0000	0.0000;
	187	2	-157.296	0	0	0	1	1	0	380	1	1.05	0.95	0.0000	0.0000	0.0000	0.0000;
	189	2	-51.0117	0	0	0	1	1	0	380	1	1.05	0.95	0.0000	0.0000	0.0000	0.0000;
	190	2	592.801	0	0	0	1	1	0	380	1	1.05	0.95	0.0000	0.0000	0.0000	0.0000;
	191	1	-74.3344	0	0	0	1	1	0	380	1	1.05	0.95	0.0000	0.0000	0.0000	0.0000;
	192	1	315.729	0	0	0	1	1	0	380	1	1.05	0.95	0.0000	0.0000	0.0000	0.0000;
	193	2	-261.781	0	0	0	1	1	0	380	1	1.05	0.95	0.0000	0.0000	0.0000	0.0000;
	194	1	45.3383	0	0	0	1	1	0	380	1	1.05	0.95	0.0000	0.0000	0.0000	0.0000;
	195	2	-301.77	0	0	0	1	1	0	380	1	1.05	0.95	0.0000	0.0000	0.0000	0.0000;
	196	1	318.354	0	0	0	1	1	0	380	1	1.05	0.95	0.0000	0.0000	0.0000	0.0000;
	197	1	642.927	0	0	0	1	1	0	380	1	1.05	0.95	0.0000	0.0000	0.0000	0.0000;
	198	1	82.5266	0	0	0	1	1	0	380	1	1.05	0.95	0.0000	0.0000	0.0000	0.0000;
	199	1	-276.927	0	0	0	1	1	0	380	1	1.05	0.95	0.0000	0.0000	0.0000	0.0000;
	200	2	-1388.05	0	0	0	1	1	0	380	1	1.05	0.95	0.0000	0.0000	0.0000	0.0000;
	201	1	-454.402	0	0	0	1	1	0	380	1	1.05	0.95	0.0000	0.0000	0.0000	0.0000;
	202	1	620.468	0	0	0	1	1	0	380	1	1.05	0.95	0.0000	0.0000	0.0000	0.0000;
	203	1	448.658	0	0	0	1	1	0	380	1	1.05	0.95	0.0000	0.0000	0.0000	0.0000;
	204	2	-21.2739	0	0	0	1	1	0	380	1	1.05	0.95	0.0000	0.0000	0.0000	0.0000;
	205	1	477.68	0	0	0	1	1	0	380	1	1.05	0.95	0.0000	0.0000	0.0000	0.0000;
	206	1	442.625	0	0	0	1	1	0	380	1	1.05	0.95	0.0000	0.0000	0.0000	0.0000;
	207	1	-222.183	0	0	0	1	1	0	380	1	1.05	0.95	0.0000	0.0000	0.0000	0.0000;
	170	1	325.822	0	0	0	1	1	0	380	1	1.05	0.95	0.0000	0.0000	0.0000	0.0000;
	209	2	-192.862	0	0	0	1	1	0	380	1	1.05	0.95	0.0000	0.0000	0.0000	0.0000;
	210	1	-61.6081	0	0	0	1	1	0	380	1	1.05	0.95	0.0000	0.0000	0.0000	0.0000;
	211	2	-1944.9	0	0	0	1	1	0	380	1	1.05	0.95	0.0000	0.0000	0.0000	0.0000;
	212	1	28.1553	0	0	0	1	1	0	380	1	1.05	0.95	0.0000	0.0000	0.0000	0.0000;
	213	1	-444.81	0	0	0	1	1	0	380	1	1.05	0.95	0.0000	0.0000	0.0000	0.0000;
	214	2	-115.265	0	0	0	1	1	0	380	1	1.05	0.95	0.0000	0.0000	0.0000	0.0000;
	215	2	-271.702	0	0	0	1	1	0	380	1	1.05	0.95	0.0000	0.0000	0.0000	0.0000;
	216	1	652.475	0	0	0	1	1	0	380	1	1.05	0.95	0.0000	0.0000	0.0000	0.0000;
	217	1	61.7042	0	0	0	1	1	0	380	1	1.05	0.95	0.0000	0.0000	0.0000	0.0000;
	218	1	33.1099	0	0	0	1	1	0	380	1	1.05	0.95	0.0000	0.0000	0.0000	0.0000;
	219	1	-132.964	0	0	0	1	1	0	380	1	1.05	0.95	0.0000	0.0000	0.0000	0.0000;
	220	1	369.276	0	0	0	1	1	0	380	1	1.05	0.95	0.0000	0.0000	0.0000	0.0000;
	221	1	149.881	0	0	0	1	1	0	380	1	1.05	0.95	0.0000	0.0000	0.0000	0.0000;
	222	1	283.36	0	0	0	1	1	0	380	1	1.05	0.95	0.0000	0.0000	0.0000	0.0000;
	223	1	255.269	0	0	0	1	1	0	380	1	1.05	0.95	0.0000	0.0000	0.0000	0.0000;
	224	1	329.893	0	0	0	1	1	0	380	1	1.05	0.95	0.0000	0.0000	0.0000	0.0000;
	225	1	245.414	0	0	0	1	1	0	380	1	1.05	0.95	0.0000	0.0000	0.0000	0.0000;
	226	1	195.337	0	0	0	1	1	0	380	1	1.05	0.95	0.0000	0.0000	0.0000	0.0000;
	227	1	507.125	0	0	0	1	1	0	380	1	1.05	0.95	0.0000	0.0000	0.0000	0.0000;
	228	1	189.132	0	0	0	1	1	0	380	1	1.05	0.95	0.0000	0.0000	0.0000	0.0000;
	229	1	209.48	0	0	0	1	1	0	380	1	1.05	0.95	0.0000	0.0000	0.0000	0.0000;
	230	1	160.546	0	0	0	1	1	0	380	1	1.05	0.95	0.0000	0.0000	0.0000	0.0000;
	231	2	-129.004	0	0	0	1	1	0	380	1	1.05	0.95	0.0000	0.0000	0.0000	0.0000;
	232	2	-86.7502	0	0	0	1	1	0	380	1	1.05	0.95	0.0000	0.0000	0.0000	0.0000;
];

%%%% branch data
%%	fbus	tbus	r	x	b	rateA	rateB	rateC	ratio	angle	status	angmin	angmax	Pf	Qf	Pt	Qt	mu_Sf	mu_St	mu_angmin	mu_angmax
mpc.branch = [
	39	117	0	0.01507	0	2400	2400	2400	1	0	1	-360	360	0.0000	0.0000	0.0000	0.0000	0.0000	0.0000	0.0000	0.0000;
	169	156	0	0.005	0	1200	1200	1200	1	0	1	-360	360	0.0000	0.0000	0.0000	0.0000	0.0000	0.0000	0.0000	0.0000;
	147	101	0	0.03698	0	1200	1200	1200	1	0	1	-360	360	0.0000	0.0000	0.0000	0.0000	0.0000	0.0000	0.0000	0.0000;
	109	69	0	0.04776	0	800	800	800	1	0	1	-360	360	0.0000	0.0000	0.0000	0.0000	0.0000	0.0000	0.0000	0.0000;
	35	42	0	0.01787	0	1600	1600	1600	1	0	1	-360	360	0.0000	0.0000	0.0000	0.0000	0.0000	0.0000	0.0000	0.0000;
	179	205	0	0.00747	0	2000	2000	2000	1	0	1	-360	360	0.0000	0.0000	0.0000	0.0000	0.0000	0.0000	0.0000	0.0000;
	139	159	0	0.00609	0	2800	2800	2800	1	0	1	-360	360	0.0000	0.0000	0.0000	0.0000	0.0000	0.0000	0.0000	0.0000;
	165	159	0	0.02821	0	1200	1200	1200	1	0	1	-360	360	0.0000	0.0000	0.0000	0.0000	0.0000	0.0000	0.0000	0.0000;
	159	201	0	0.0658	0	800	800	800	1	0	1	-360	360	0.0000	0.0000	0.0000	0.0000	0.0000	0.0000	0.0000	0.0000;
	129	148	0	0.02508	0	1200	1200	1200	1	0	1	-360	360	0.0000	0.0000	0.0000	0.0000	0.0000	0.0000	0.0000	0.0000;
	31	169	0	0.00558	0	4000	4000	4000	1	0	1	-360	360	0.0000	0.0000	0.0000	0.0000	0.0000	0.0000	0.0000	0.0000;
	26	58	0	0.01802	0	800	800	800	1	0	1	-360	360	0.0000	0.0000	0.0000	0.0000	0.0000	0.0000	0.0000	0.0000;
	232	170	0	0.00531	0	800	800	800	1	0	1	-360	360	0.0000	0.0000	0.0000	0.0000	0.0000	0.0000	0.0000	0.0000;
	190	108	0	0.04185	0	4000	4000	4000	1	0	1	-360	360	0.0000	0.0000	0.0000	0.0000	0.0000	0.0000	0.0000	0.0000;
	151	211	0	0.04386	0	1600	1600	1600	1	0	1	-360	360	0.0000	0.0000	0.0000	0.0000	0.0000	0.0000	0.0000	0.0000;
	14	26	0	0.00993	0	2000	2000	2000	1	0	1	-360	360	0.0000	0.0000	0.0000	0.0000	0.0000	0.0000	0.0000	0.0000;
	71	67	0	0.00546	0	800	800	800	1	0	1	-360	360	0.0000	0.0000	0.0000	0.0000	0.0000	0.0000	0.0000	0.0000;
	60	25	0	0.02133	0	1600	1600	1600	1	0	1	-360	360	0.0000	0.0000	0.0000	0.0000	0.0000	0.0000	0.0000	0.0000;
	134	98	0	0.04047	0	1200	1200	1200	1	0	1	-360	360	0.0000	0.0000	0.0000	0.0000	0.0000	0.0000	0.0000	0.0000;
	150	183	0	0.01257	0	800	800	800	1	0	1	-360	360	0.0000	0.0000	0.0000	0.0000	0.0000	0.0000	0.0000	0.0000;
	158	74	0	0.0203	0	1600	1600	1600	1	0	1	-360	360	0.0000	0.0000	0.0000	0.0000	0.0000	0.0000	0.0000	0.0000;
	188	11	0	0.0475	0	800	800	800	1	0	1	-360	360	0.0000	0.0000	0.0000	0.0000	0.0000	0.0000	0.0000	0.0000;
	133	11	0	0.02192	0	800	800	800	1	0	1	-360	360	0.0000	0.0000	0.0000	0.0000	0.0000	0.0000	0.0000	0.0000;
	108	171	0	0.0172	0	2000	2000	2000	1	0	1	-360	360	0.0000	0.0000	0.0000	0.0000	0.0000	0.0000	0.0000	0.0000;
	44	117	0	0.02262	0	800	800	800	1	0	1	-360	360	0.0000	0.0000	0.0000	0.0000	0.0000	0.0000	0.0000	0.0000;
	22	32	0	0.01112	0	800	800	800	1	0	1	-360	360	0.0000	0.0000	0.0000	0.0000	0.0000	0.0000	0.0000	0.0000;
	55	57	0	0.03235	0	800	800	800	1	0	1	-360	360	0.0000	0.0000	0.0000	0.0000	0.0000	0.0000	0.0000	0.0000;
	145	161	0	0.01924	0	2800	2800	2800	1	0	1	-360	360	0.0000	0.0000	0.0000	0.0000	0.0000	0.0000	0.0000	0.0000;
	206	203	0	0.02963	0	1600	1600	1600	1	0	1	-360	360	0.0000	0.0000	0.0000	0.0000	0.0000	0.0000	0.0000	0.0000;
	42	28	0	0.03684	0	800	800	800	1	0	1	-360	360	0.0000	0.0000	0.0000	0.0000	0.0000	0.0000	0.0000	0.0000;
	20	25	0	0.01766	0	800	800	800	1	0	1	-360	360	0.0000	0.0000	0.0000	0.0000	0.0000	0.0000	0.0000	0.0000;
	4	69	0	0.0203	0	800	800	800	1	0	1	-360	360	0.0000	0.0000	0.0000	0.0000	0.0000	0.0000	0.0000	0.0000;
	29	39	0	0.021	0	800	800	800	1	0	1	-360	360	0.0000	0.0000	0.0000	0.0000	0.0000	0.0000	0.0000	0.0000;
	108	135	0	0.01999	0	800	800	800	1	0	1	-360	360	0.0000	0.0000	0.0000	0.0000	0.0000	0.0000	0.0000	0.0000;
	191	150	0	0.01699	0	1200	1200	1200	1	0	1	-360	360	0.0000	0.0000	0.0000	0.0000	0.0000	0.0000	0.0000	0.0000;
	168	60	0	0.01758	0	1200	1200	1200	1	0	1	-360	360	0.0000	0.0000	0.0000	0.0000	0.0000	0.0000	0.0000	0.0000;
	36	88	0	0.00965	0	800	800	800	1	0	1	-360	360	0.0000	0.0000	0.0000	0.0000	0.0000	0.0000	0.0000	0.0000;
	165	126	0	0.01515	0	800	800	800	1	0	1	-360	360	0.0000	0.0000	0.0000	0.0000	0.0000	0.0000	0.0000	0.0000;
	173	104	0	0.00947	0	800	800	800	1	0	1	-360	360	0.0000	0.0000	0.0000	0.0000	0.0000	0.0000	0.0000	0.0000;
	20	33	0	0.028	0	1600	1600	1600	1	0	1	-360	360	0.0000	0.0000	0.0000	0.0000	0.0000	0.0000	0.0000	0.0000;
	91	97	0	0.01377	0	1200	1200	1200	1	0	1	-360	360	0.0000	0.0000	0.0000	0.0000	0.0000	0.0000	0.0000	0.0000;
	38	8	0	0.00912	0	1200	1200	1200	1	0	1	-360	360	0.0000	0.0000	0.0000	0.0000	0.0000	0.0000	0.0000	0.0000;
	47	51	0	0.01103	0	4000	4000	4000	1	0	1	-360	360	0.0000	0.0000	0.0000	0.0000	0.0000	0.0000	0.0000	0.0000;
	151	216	0	0.02023	0	800	800	800	1	0	1	-360	360	0.0000	0.0000	0.0000	0.0000	0.0000	0.0000	0.0000	0.0000;
	174	172	0	0.00473	0	800	800	800	1	0	1	-360	360	0.0000	0.0000	0.0000	0.0000	0.0000	0.0000	0.0000	0.0000;
	134	102	0	0.05398	0	2000	2000	2000	1	0	1	-360	360	0.0000	0.0000	0.0000	0.0000	0.0000	0.0000	0.0000	0.0000;
	74	72	0	0.07252	0	2400	2400	2400	1	0	1	-360	360	0.0000	0.0000	0.0000	0.0000	0.0000	0.0000	0.0000	0.0000;
	56	166	0	0.01048	0	2000	2000	2000	1	0	1	-360	360	0.0000	0.0000	0.0000	0.0000	0.0000	0.0000	0.0000	0.0000;
	213	218	0	0.02512	0	800	800	800	1	0	1	-360	360	0.0000	0.0000	0.0000	0.0000	0.0000	0.0000	0.0000	0.0000;
	125	168	0	0.01164	0	1600	1600	1600	1	0	1	-360	360	0.0000	0.0000	0.0000	0.0000	0.0000	0.0000	0.0000	0.0000;
	54	56	0	0.00857	0	1600	1600	1600	1	0	1	-360	360	0.0000	0.0000	0.0000	0.0000	0.0000	0.0000	0.0000	0.0000;
	8	117	0	0.01954	0	800	800	800	1	0	1	-360	360	0.0000	0.0000	0.0000	0.0000	0.0000	0.0000	0.0000	0.0000;
	10	144	0	0.0186	0	800	800	800	1	0	1	-360	360	0.0000	0.0000	0.0000	0.0000	0.0000	0.0000	0.0000	0.0000;
	133	192	0	0.05944	0	1200	1200	1200	1	0	1	-360	360	0.0000	0.0000	0.0000	0.0000	0.0000	0.0000	0.0000	0.0000;
	9	32	0	0.02899	0	1600	1600	1600	1	0	1	-360	360	0.0000	0.0000	0.0000	0.0000	0.0000	0.0000	0.0000	0.0000;
	118	34	0	0.06515	0	800	800	800	1	0	1	-360	360	0.0000	0.0000	0.0000	0.0000	0.0000	0.0000	0.0000	0.0000;
	119	49	0	0.02222	0	800	800	800	1	0	1	-360	360	0.0000	0.0000	0.0000	0.0000	0.0000	0.0000	0.0000	0.0000;
	97	47	0	0.06543	0	800	800	800	1	0	1	-360	360	0.0000	0.0000	0.0000	0.0000	0.0000	0.0000	0.0000	0.0000;
	15	17	0	0.03216	0	1600	1600	1600	1	0	1	-360	360	0.0000	0.0000	0.0000	0.0000	0.0000	0.0000	0.0000	0.0000;
	140	145	0	0.02412	0	2400	2400	2400	1	0	1	-360	360	0.0000	0.0000	0.0000	0.0000	0.0000	0.0000	0.0000	0.0000;
	164	168	0	0.00507	0	1200	1200	1200	1	0	1	-360	360	0.0000	0.0000	0.0000	0.0000	0.0000	0.0000	0.0000	0.0000;
	73	74	0	0.00844	0	2000	2000	2000	1	0	1	-360	360	0.0000	0.0000	0.0000	0.0000	0.0000	0.0000	0.0000	0.0000;
	116	123	0	0.00573	0	1600	1600	1600	1	0	1	-360	360	0.0000	0.0000	0.0000	0.0000	0.0000	0.0000	0.0000	0.0000;
	47	115	0	0.04114	0	1200	1200	1200	1	0	1	-360	360	0.0000	0.0000	0.0000	0.0000	0.0000	0.0000	0.0000	0.0000;
	160	187	0	0.11579	0	800	800	800	1	0	1	-360	360	0.0000	0.0000	0.0000	0.0000	0.0000	0.0000	0.0000	0.0000;
	187	87	0	0.02515	0	3200	3200	3200	1	0	1	-360	360	0.0000	0.0000	0.0000	0.0000	0.0000	0.0000	0.0000	0.0000;
	128	142	0	0.01776	0	2000	2000	2000	1	0	1	-360	360	0.0000	0.0000	0.0000	0.0000	0.0000	0.0000	0.0000	0.0000;
	40	7	0	0.0257	0	800	800	800	1	0	1	-360	360	0.0000	0.0000	0.0000	0.0000	0.0000	0.0000	0.0000	0.0000;
	39	18	0	0.01715	0	800	800	800	1	0	1	-360	360	0.0000	0.0000	0.0000	0.0000	0.0000	0.0000	0.0000	0.0000;
	41	92	0	0.01592	0	800	800	800	1	0	1	-360	360	0.0000	0.0000	0.0000	0.0000	0.0000	0.0000	0.0000	0.0000;
	122	113	0	0.01437	0	1200	1200	1200	1	0	1	-360	360	0.0000	0.0000	0.0000	0.0000	0.0000	0.0000	0.0000	0.0000;
	137	59	0	0.01492	0	1200	1200	1200	1	0	1	-360	360	0.0000	0.0000	0.0000	0.0000	0.0000	0.0000	0.0000	0.0000;
	30	222	0	0.00804	0	1200	1200	1200	1	0	1	-360	360	0.0000	0.0000	0.0000	0.0000	0.0000	0.0000	0.0000	0.0000;
	191	106	0	0.01197	0	1600	1600	1600	1	0	1	-360	360	0.0000	0.0000	0.0000	0.0000	0.0000	0.0000	0.0000	0.0000;
	10	180	0	0.02024	0	4000	4000	4000	1	0	1	-360	360	0.0000	0.0000	0.0000	0.0000	0.0000	0.0000	0.0000	0.0000;
	200	202	0	0.01449	0	1600	1600	1600	1	0	1	-360	360	0.0000	0.0000	0.0000	0.0000	0.0000	0.0000	0.0000	0.0000;
	62	112	0	0.01569	0	4000	4000	4000	1	0	1	-360	360	0.0000	0.0000	0.0000	0.0000	0.0000	0.0000	0.0000	0.0000;
	32	21	0	0.00935	0	800	800	800	1	0	1	-360	360	0.0000	0.0000	0.0000	0.0000	0.0000	0.0000	0.0000	0.0000;
	24	37	0	0.006	0	800	800	800	1	0	1	-360	360	0.0000	0.0000	0.0000	0.0000	0.0000	0.0000	0.0000	0.0000;
	224	226	0	0.01069	0	800	800	800	1	0	1	-360	360	0.0000	0.0000	0.0000	0.0000	0.0000	0.0000	0.0000	0.0000;
	219	129	0	0.10217	0	800	800	800	1	0	1	-360	360	0.0000	0.0000	0.0000	0.0000	0.0000	0.0000	0.0000	0.0000;
	113	68	0	0.007	0	1200	1200	1200	1	0	1	-360	360	0.0000	0.0000	0.0000	0.0000	0.0000	0.0000	0.0000	0.0000;
	160	198	0	0.05981	0	800	800	800	1	0	1	-360	360	0.0000	0.0000	0.0000	0.0000	0.0000	0.0000	0.0000	0.0000;
	157	195	0	0.0446	0	800	800	800	1	0	1	-360	360	0.0000	0.0000	0.0000	0.0000	0.0000	0.0000	0.0000	0.0000;
	230	74	0	0.03882	0	1200	1200	1200	1	0	1	-360	360	0.0000	0.0000	0.0000	0.0000	0.0000	0.0000	0.0000	0.0000;
	193	103	0	0.02484	0	800	800	800	1	0	1	-360	360	0.0000	0.0000	0.0000	0.0000	0.0000	0.0000	0.0000	0.0000;
	95	13	0	0.01983	0	1600	1600	1600	1	0	1	-360	360	0.0000	0.0000	0.0000	0.0000	0.0000	0.0000	0.0000	0.0000;
	105	164	0	0.0045	0	800	800	800	1	0	1	-360	360	0.0000	0.0000	0.0000	0.0000	0.0000	0.0000	0.0000	0.0000;
	187	230	0	0.02702	0	1600	1600	1600	1	0	1	-360	360	0.0000	0.0000	0.0000	0.0000	0.0000	0.0000	0.0000	0.0000;
	191	195	0	0.03066	0	800	800	800	1	0	1	-360	360	0.0000	0.0000	0.0000	0.0000	0.0000	0.0000	0.0000	0.0000;
	231	150	0	0.02415	0	1200	1200	1200	1	0	1	-360	360	0.0000	0.0000	0.0000	0.0000	0.0000	0.0000	0.0000	0.0000;
	95	52	0	0.01247	0	1200	1200	1200	1	0	1	-360	360	0.0000	0.0000	0.0000	0.0000	0.0000	0.0000	0.0000	0.0000;
	100	221	0	0.01111	0	1200	1200	1200	1	0	1	-360	360	0.0000	0.0000	0.0000	0.0000	0.0000	0.0000	0.0000	0.0000;
	42	20	0	0.03447	0	800	800	800	1	0	1	-360	360	0.0000	0.0000	0.0000	0.0000	0.0000	0.0000	0.0000	0.0000;
	219	217	0	0.02661	0	800	800	800	1	0	1	-360	360	0.0000	0.0000	0.0000	0.0000	0.0000	0.0000	0.0000	0.0000;
	212	217	0	0.04206	0	800	800	800	1	0	1	-360	360	0.0000	0.0000	0.0000	0.0000	0.0000	0.0000	0.0000	0.0000;
	23	59	0	0.01998	0	1200	1200	1200	1	0	1	-360	360	0.0000	0.0000	0.0000	0.0000	0.0000	0.0000	0.0000	0.0000;
	213	212	0	0.02269	0	800	800	800	1	0	1	-360	360	0.0000	0.0000	0.0000	0.0000	0.0000	0.0000	0.0000	0.0000;
	174	111	0	0.00588	0	800	800	800	1	0	1	-360	360	0.0000	0.0000	0.0000	0.0000	0.0000	0.0000	0.0000	0.0000;
	92	9	0	0.02274	0	800	800	800	1	0	1	-360	360	0.0000	0.0000	0.0000	0.0000	0.0000	0.0000	0.0000	0.0000;
	117	80	0	0.01672	0	1200	1200	1200	1	0	1	-360	360	0.0000	0.0000	0.0000	0.0000	0.0000	0.0000	0.0000	0.0000;
	50	19	0	0.00759	0	1200	1200	1200	1	0	1	-360	360	0.0000	0.0000	0.0000	0.0000	0.0000	0.0000	0.0000	0.0000;
	210	152	0	0.01447	0	2800	2800	2800	1	0	1	-360	360	0.0000	0.0000	0.0000	0.0000	0.0000	0.0000	0.0000	0.0000;
	157	183	0	0.00437	0	800	800	800	1	0	1	-360	360	0.0000	0.0000	0.0000	0.0000	0.0000	0.0000	0.0000	0.0000;
	97	94	0	0.00611	0	2400	2400	2400	1	0	1	-360	360	0.0000	0.0000	0.0000	0.0000	0.0000	0.0000	0.0000	0.0000;
	77	191	0	0.08197	0	800	800	800	1	0	1	-360	360	0.0000	0.0000	0.0000	0.0000	0.0000	0.0000	0.0000	0.0000;
	155	133	0	0.03324	0	800	800	800	1	0	1	-360	360	0.0000	0.0000	0.0000	0.0000	0.0000	0.0000	0.0000	0.0000;
	93	114	0	0.00315	0	3600	3600	3600	1	0	1	-360	360	0.0000	0.0000	0.0000	0.0000	0.0000	0.0000	0.0000	0.0000;
	148	159	0	0.01162	0	2000	2000	2000	1	0	1	-360	360	0.0000	0.0000	0.0000	0.0000	0.0000	0.0000	0.0000	0.0000;
	120	15	0	0.01297	0	2000	2000	2000	1	0	1	-360	360	0.0000	0.0000	0.0000	0.0000	0.0000	0.0000	0.0000	0.0000;
	104	186	0	0.00684	0	1200	1200	1200	1	0	1	-360	360	0.0000	0.0000	0.0000	0.0000	0.0000	0.0000	0.0000	0.0000;
	56	39	0	0.02553	0	1600	1600	1600	1	0	1	-360	360	0.0000	0.0000	0.0000	0.0000	0.0000	0.0000	0.0000	0.0000;
	158	47	0	0.01068	0	3200	3200	3200	1	0	1	-360	360	0.0000	0.0000	0.0000	0.0000	0.0000	0.0000	0.0000	0.0000;
	32	34	0	0.04422	0	800	800	800	1	0	1	-360	360	0.0000	0.0000	0.0000	0.0000	0.0000	0.0000	0.0000	0.0000;
	21	129	0	0.02078	0	1600	1600	1600	1	0	1	-360	360	0.0000	0.0000	0.0000	0.0000	0.0000	0.0000	0.0000	0.0000;
	128	130	0	0.01649	0	800	800	800	1	0	1	-360	360	0.0000	0.0000	0.0000	0.0000	0.0000	0.0000	0.0000	0.0000;
	3	147	0	0.00599	0	2000	2000	2000	1	0	1	-360	360	0.0000	0.0000	0.0000	0.0000	0.0000	0.0000	0.0000	0.0000;
	158	73	0	0.00614	0	3200	3200	3200	1	0	1	-360	360	0.0000	0.0000	0.0000	0.0000	0.0000	0.0000	0.0000	0.0000;
	202	206	0	0.02484	0	800	800	800	1	0	1	-360	360	0.0000	0.0000	0.0000	0.0000	0.0000	0.0000	0.0000	0.0000;
	214	216	0	0.02119	0	800	800	800	1	0	1	-360	360	0.0000	0.0000	0.0000	0.0000	0.0000	0.0000	0.0000	0.0000;
	44	75	0	0.0419	0	800	800	800	1	0	1	-360	360	0.0000	0.0000	0.0000	0.0000	0.0000	0.0000	0.0000	0.0000;
	120	88	0	0.01084	0	800	800	800	1	0	1	-360	360	0.0000	0.0000	0.0000	0.0000	0.0000	0.0000	0.0000	0.0000;
	126	129	0	0.04182	0	1200	1200	1200	1	0	1	-360	360	0.0000	0.0000	0.0000	0.0000	0.0000	0.0000	0.0000	0.0000;
	219	207	0	0.01264	0	800	800	800	1	0	1	-360	360	0.0000	0.0000	0.0000	0.0000	0.0000	0.0000	0.0000	0.0000;
	123	113	0	0.00782	0	3200	3200	3200	1	0	1	-360	360	0.0000	0.0000	0.0000	0.0000	0.0000	0.0000	0.0000	0.0000;
	29	38	0	0.00745	0	4000	4000	4000	1	0	1	-360	360	0.0000	0.0000	0.0000	0.0000	0.0000	0.0000	0.0000	0.0000;
	222	102	0	0.00897	0	2400	2400	2400	1	0	1	-360	360	0.0000	0.0000	0.0000	0.0000	0.0000	0.0000	0.0000	0.0000;
	118	44	0	0.00734	0	1600	1600	1600	1	0	1	-360	360	0.0000	0.0000	0.0000	0.0000	0.0000	0.0000	0.0000	0.0000;
	117	121	0	0.0148	0	800	800	800	1	0	1	-360	360	0.0000	0.0000	0.0000	0.0000	0.0000	0.0000	0.0000	0.0000;
	149	163	0	0.03612	0	800	800	800	1	0	1	-360	360	0.0000	0.0000	0.0000	0.0000	0.0000	0.0000	0.0000	0.0000;
	196	150	0	0.01691	0	800	800	800	1	0	1	-360	360	0.0000	0.0000	0.0000	0.0000	0.0000	0.0000	0.0000	0.0000;
	50	125	0	0.00523	0	800	800	800	1	0	1	-360	360	0.0000	0.0000	0.0000	0.0000	0.0000	0.0000	0.0000	0.0000;
	44	224	0	0.01223	0	800	800	800	1	0	1	-360	360	0.0000	0.0000	0.0000	0.0000	0.0000	0.0000	0.0000	0.0000;
	215	219	0	0.00858	0	2400	2400	2400	1	0	1	-360	360	0.0000	0.0000	0.0000	0.0000	0.0000	0.0000	0.0000	0.0000;
	79	82	0	0.0041	0	4000	4000	4000	1	0	1	-360	360	0.0000	0.0000	0.0000	0.0000	0.0000	0.0000	0.0000	0.0000;
	95	114	0	0.06327	0	800	800	800	1	0	1	-360	360	0.0000	0.0000	0.0000	0.0000	0.0000	0.0000	0.0000	0.0000;
	114	47	0	0.00893	0	3200	3200	3200	1	0	1	-360	360	0.0000	0.0000	0.0000	0.0000	0.0000	0.0000	0.0000	0.0000;
	150	199	0	0.01917	0	2800	2800	2800	1	0	1	-360	360	0.0000	0.0000	0.0000	0.0000	0.0000	0.0000	0.0000	0.0000;
	85	108	0	0.00817	0	800	800	800	1	0	1	-360	360	0.0000	0.0000	0.0000	0.0000	0.0000	0.0000	0.0000	0.0000;
	219	218	0	0.04686	0	800	800	800	1	0	1	-360	360	0.0000	0.0000	0.0000	0.0000	0.0000	0.0000	0.0000	0.0000;
	67	72	0	0.0155	0	1600	1600	1600	1	0	1	-360	360	0.0000	0.0000	0.0000	0.0000	0.0000	0.0000	0.0000	0.0000;
	206	204	0	0.01884	0	2400	2400	2400	1	0	1	-360	360	0.0000	0.0000	0.0000	0.0000	0.0000	0.0000	0.0000	0.0000;
	60	55	0	0.00958	0	1200	1200	1200	1	0	1	-360	360	0.0000	0.0000	0.0000	0.0000	0.0000	0.0000	0.0000	0.0000;
	200	206	0	0.01219	0	2800	2800	2800	1	0	1	-360	360	0.0000	0.0000	0.0000	0.0000	0.0000	0.0000	0.0000	0.0000;
	159	138	0	0.03049	0	1200	1200	1200	1	0	1	-360	360	0.0000	0.0000	0.0000	0.0000	0.0000	0.0000	0.0000	0.0000;
	232	188	0	0.0075	0	1200	1200	1200	1	0	1	-360	360	0.0000	0.0000	0.0000	0.0000	0.0000	0.0000	0.0000	0.0000;
	39	126	0	0.01853	0	1200	1200	1200	1	0	1	-360	360	0.0000	0.0000	0.0000	0.0000	0.0000	0.0000	0.0000	0.0000;
	88	123	0	0.00964	0	800	800	800	1	0	1	-360	360	0.0000	0.0000	0.0000	0.0000	0.0000	0.0000	0.0000	0.0000;
	76	44	0	0.01091	0	800	800	800	1	0	1	-360	360	0.0000	0.0000	0.0000	0.0000	0.0000	0.0000	0.0000	0.0000;
	213	201	0	0.0606	0	800	800	800	1	0	1	-360	360	0.0000	0.0000	0.0000	0.0000	0.0000	0.0000	0.0000	0.0000;
	143	140	0	0.02897	0	2000	2000	2000	1	0	1	-360	360	0.0000	0.0000	0.0000	0.0000	0.0000	0.0000	0.0000	0.0000;
	137	57	0	0.03069	0	800	800	800	1	0	1	-360	360	0.0000	0.0000	0.0000	0.0000	0.0000	0.0000	0.0000	0.0000;
	103	107	0	0.01412	0	1200	1200	1200	1	0	1	-360	360	0.0000	0.0000	0.0000	0.0000	0.0000	0.0000	0.0000	0.0000;
	181	142	0	0.00896	0	2800	2800	2800	1	0	1	-360	360	0.0000	0.0000	0.0000	0.0000	0.0000	0.0000	0.0000	0.0000;
	54	29	0	0.00463	0	3200	3200	3200	1	0	1	-360	360	0.0000	0.0000	0.0000	0.0000	0.0000	0.0000	0.0000	0.0000;
	219	213	0	0.0241	0	800	800	800	1	0	1	-360	360	0.0000	0.0000	0.0000	0.0000	0.0000	0.0000	0.0000	0.0000;
	81	106	0	0.02626	0	1200	1200	1200	1	0	1	-360	360	0.0000	0.0000	0.0000	0.0000	0.0000	0.0000	0.0000	0.0000;
	28	15	0	0.0069	0	800	800	800	1	0	1	-360	360	0.0000	0.0000	0.0000	0.0000	0.0000	0.0000	0.0000	0.0000;
	85	112	0	0.03248	0	4000	4000	4000	1	0	1	-360	360	0.0000	0.0000	0.0000	0.0000	0.0000	0.0000	0.0000	0.0000;
	55	131	0	0.00514	0	800	800	800	1	0	1	-360	360	0.0000	0.0000	0.0000	0.0000	0.0000	0.0000	0.0000	0.0000;
	230	229	0	0.02623	0	800	800	800	1	0	1	-360	360	0.0000	0.0000	0.0000	0.0000	0.0000	0.0000	0.0000	0.0000;
	95	96	0	0.01772	0	1600	1600	1600	1	0	1	-360	360	0.0000	0.0000	0.0000	0.0000	0.0000	0.0000	0.0000	0.0000;
	159	166	0	0.01941	0	1200	1200	1200	1	0	1	-360	360	0.0000	0.0000	0.0000	0.0000	0.0000	0.0000	0.0000	0.0000;
	82	86	0	0.01022	0	2400	2400	2400	1	0	1	-360	360	0.0000	0.0000	0.0000	0.0000	0.0000	0.0000	0.0000	0.0000;
	187	190	0	0.04563	0	2000	2000	2000	1	0	1	-360	360	0.0000	0.0000	0.0000	0.0000	0.0000	0.0000	0.0000	0.0000;
	46	72	0	0.01866	0	800	800	800	1	0	1	-360	360	0.0000	0.0000	0.0000	0.0000	0.0000	0.0000	0.0000	0.0000;
	221	185	0	0.01103	0	2000	2000	2000	1	0	1	-360	360	0.0000	0.0000	0.0000	0.0000	0.0000	0.0000	0.0000	0.0000;
	127	23	0	0.01987	0	2800	2800	2800	1	0	1	-360	360	0.0000	0.0000	0.0000	0.0000	0.0000	0.0000	0.0000	0.0000;
	222	124	0	0.01547	0	1600	1600	1600	1	0	1	-360	360	0.0000	0.0000	0.0000	0.0000	0.0000	0.0000	0.0000	0.0000;
	189	82	0	0.02155	0	4000	4000	4000	1	0	1	-360	360	0.0000	0.0000	0.0000	0.0000	0.0000	0.0000	0.0000	0.0000;
	4	103	0	0.03237	0	2000	2000	2000	1	0	1	-360	360	0.0000	0.0000	0.0000	0.0000	0.0000	0.0000	0.0000	0.0000;
	222	186	0	0.07995	0	800	800	800	1	0	1	-360	360	0.0000	0.0000	0.0000	0.0000	0.0000	0.0000	0.0000	0.0000;
	201	210	0	0.03211	0	1600	1600	1600	1	0	1	-360	360	0.0000	0.0000	0.0000	0.0000	0.0000	0.0000	0.0000	0.0000;
	59	197	0	0.01836	0	1600	1600	1600	1	0	1	-360	360	0.0000	0.0000	0.0000	0.0000	0.0000	0.0000	0.0000	0.0000;
	143	178	0	0.05279	0	1200	1200	1200	1	0	1	-360	360	0.0000	0.0000	0.0000	0.0000	0.0000	0.0000	0.0000	0.0000;
	51	72	0	0.00695	0	3600	3600	3600	1	0	1	-360	360	0.0000	0.0000	0.0000	0.0000	0.0000	0.0000	0.0000	0.0000;
	110	30	0	0.00635	0	800	800	800	1	0	1	-360	360	0.0000	0.0000	0.0000	0.0000	0.0000	0.0000	0.0000	0.0000;
	23	20	0	0.00409	0	1200	1200	1200	1	0	1	-360	360	0.0000	0.0000	0.0000	0.0000	0.0000	0.0000	0.0000	0.0000;
	74	158	0	0.00401	0	4000	4000	4000	1	0	1	-360	360	0.0000	0.0000	0.0000	0.0000	0.0000	0.0000	0.0000	0.0000;
	185	87	0	0.00586	0	2000	2000	2000	1	0	1	-360	360	0.0000	0.0000	0.0000	0.0000	0.0000	0.0000	0.0000	0.0000;
	146	64	0	0.01279	0	800	800	800	1	0	1	-360	360	0.0000	0.0000	0.0000	0.0000	0.0000	0.0000	0.0000	0.0000;
	47	74	0	0.02421	0	1600	1600	1600	1	0	1	-360	360	0.0000	0.0000	0.0000	0.0000	0.0000	0.0000	0.0000	0.0000;
	130	53	0	0.0325	0	2000	2000	2000	1	0	1	-360	360	0.0000	0.0000	0.0000	0.0000	0.0000	0.0000	0.0000	0.0000;
	177	129	0	0.02331	0	800	800	800	1	0	1	-360	360	0.0000	0.0000	0.0000	0.0000	0.0000	0.0000	0.0000	0.0000;
	155	223	0	0.03585	0	800	800	800	1	0	1	-360	360	0.0000	0.0000	0.0000	0.0000	0.0000	0.0000	0.0000	0.0000;
	27	16	0	0.02604	0	1600	1600	1600	1	0	1	-360	360	0.0000	0.0000	0.0000	0.0000	0.0000	0.0000	0.0000	0.0000;
	85	196	0	0.03705	0	800	800	800	1	0	1	-360	360	0.0000	0.0000	0.0000	0.0000	0.0000	0.0000	0.0000	0.0000;
	144	143	0	0.01347	0	2400	2400	2400	1	0	1	-360	360	0.0000	0.0000	0.0000	0.0000	0.0000	0.0000	0.0000	0.0000;
	145	209	0	0.03387	0	800	800	800	1	0	1	-360	360	0.0000	0.0000	0.0000	0.0000	0.0000	0.0000	0.0000	0.0000;
	188	133	0	0.00442	0	1200	1200	1200	1	0	1	-360	360	0.0000	0.0000	0.0000	0.0000	0.0000	0.0000	0.0000	0.0000;
	167	58	0	0.03208	0	1600	1600	1600	1	0	1	-360	360	0.0000	0.0000	0.0000	0.0000	0.0000	0.0000	0.0000	0.0000;
	110	199	0	0.08153	0	4000	4000	4000	1	0	1	-360	360	0.0000	0.0000	0.0000	0.0000	0.0000	0.0000	0.0000	0.0000;
	79	174	0	0.0247	0	4000	4000	4000	1	0	1	-360	360	0.0000	0.0000	0.0000	0.0000	0.0000	0.0000	0.0000	0.0000;
	117	48	0	0.00679	0	800	800	800	1	0	1	-360	360	0.0000	0.0000	0.0000	0.0000	0.0000	0.0000	0.0000	0.0000;
	221	78	0	0.03824	0	2000	2000	2000	1	0	1	-360	360	0.0000	0.0000	0.0000	0.0000	0.0000	0.0000	0.0000	0.0000;
	155	187	0	0.01849	0	800	800	800	1	0	1	-360	360	0.0000	0.0000	0.0000	0.0000	0.0000	0.0000	0.0000	0.0000;
	3	104	0	0.01071	0	3200	3200	3200	1	0	1	-360	360	0.0000	0.0000	0.0000	0.0000	0.0000	0.0000	0.0000	0.0000;
	153	187	0	0.00803	0	1200	1200	1200	1	0	1	-360	360	0.0000	0.0000	0.0000	0.0000	0.0000	0.0000	0.0000	0.0000;
	68	231	0	0.01509	0	800	800	800	1	0	1	-360	360	0.0000	0.0000	0.0000	0.0000	0.0000	0.0000	0.0000	0.0000;
	52	47	0	0.00661	0	4800	4800	4800	1	0	1	-360	360	0.0000	0.0000	0.0000	0.0000	0.0000	0.0000	0.0000	0.0000;
	69	2	0	0.02237	0	1200	1200	1200	1	0	1	-360	360	0.0000	0.0000	0.0000	0.0000	0.0000	0.0000	0.0000	0.0000;
	107	169	0	0.01146	0	3600	3600	3600	1	0	1	-360	360	0.0000	0.0000	0.0000	0.0000	0.0000	0.0000	0.0000	0.0000;
	65	112	0	0.02424	0	2400	2400	2400	1	0	1	-360	360	0.0000	0.0000	0.0000	0.0000	0.0000	0.0000	0.0000	0.0000;
	66	73	0	0.00698	0	800	800	800	1	0	1	-360	360	0.0000	0.0000	0.0000	0.0000	0.0000	0.0000	0.0000	0.0000;
	136	132	0	0.00608	0	2800	2800	2800	1	0	1	-360	360	0.0000	0.0000	0.0000	0.0000	0.0000	0.0000	0.0000	0.0000;
	108	7	0	0.02273	0	3200	3200	3200	1	0	1	-360	360	0.0000	0.0000	0.0000	0.0000	0.0000	0.0000	0.0000	0.0000;
	186	102	0	0.0166	0	800	800	800	1	0	1	-360	360	0.0000	0.0000	0.0000	0.0000	0.0000	0.0000	0.0000	0.0000;
	19	91	0	0.00332	0	1200	1200	1200	1	0	1	-360	360	0.0000	0.0000	0.0000	0.0000	0.0000	0.0000	0.0000	0.0000;
	216	200	0	0.01225	0	2000	2000	2000	1	0	1	-360	360	0.0000	0.0000	0.0000	0.0000	0.0000	0.0000	0.0000	0.0000;
	167	161	0	0.02803	0	2000	2000	2000	1	0	1	-360	360	0.0000	0.0000	0.0000	0.0000	0.0000	0.0000	0.0000	0.0000;
	167	55	0	0.0389	0	1200	1200	1200	1	0	1	-360	360	0.0000	0.0000	0.0000	0.0000	0.0000	0.0000	0.0000	0.0000;
	82	112	0	0.00742	0	4000	4000	4000	1	0	1	-360	360	0.0000	0.0000	0.0000	0.0000	0.0000	0.0000	0.0000	0.0000;
	154	193	0	0.00743	0	800	800	800	1	0	1	-360	360	0.0000	0.0000	0.0000	0.0000	0.0000	0.0000	0.0000	0.0000;
	12	39	0	0.02018	0	800	800	800	1	0	1	-360	360	0.0000	0.0000	0.0000	0.0000	0.0000	0.0000	0.0000	0.0000;
	178	209	0	0.08865	0	800	800	800	1	0	1	-360	360	0.0000	0.0000	0.0000	0.0000	0.0000	0.0000	0.0000	0.0000;
	138	149	0	0.01516	0	2000	2000	2000	1	0	1	-360	360	0.0000	0.0000	0.0000	0.0000	0.0000	0.0000	0.0000	0.0000;
	191	208	0	0.00744	0	1200	1200	1200	1	0	1	-360	360	0.0000	0.0000	0.0000	0.0000	0.0000	0.0000	0.0000	0.0000;
	53	27	0	0.01552	0	1200	1200	1200	1	0	1	-360	360	0.0000	0.0000	0.0000	0.0000	0.0000	0.0000	0.0000	0.0000;
	63	174	0	0.05171	0	2400	2400	2400	1	0	1	-360	360	0.0000	0.0000	0.0000	0.0000	0.0000	0.0000	0.0000	0.0000;
	80	154	0	0.05651	0	800	800	800	1	0	1	-360	360	0.0000	0.0000	0.0000	0.0000	0.0000	0.0000	0.0000	0.0000;
	176	182	0	0.02608	0	3200	3200	3200	1	0	1	-360	360	0.0000	0.0000	0.0000	0.0000	0.0000	0.0000	0.0000	0.0000;
	192	82	0	0.02608	0	800	800	800	1	0	1	-360	360	0.0000	0.0000	0.0000	0.0000	0.0000	0.0000	0.0000	0.0000;
	195	81	0	0.05028	0	1200	1200	1200	1	0	1	-360	360	0.0000	0.0000	0.0000	0.0000	0.0000	0.0000	0.0000	0.0000;
	213	139	0	0.03567	0	1200	1200	1200	1	0	1	-360	360	0.0000	0.0000	0.0000	0.0000	0.0000	0.0000	0.0000	0.0000;
	167	130	0	0.10009	0	800	800	800	1	0	1	-360	360	0.0000	0.0000	0.0000	0.0000	0.0000	0.0000	0.0000	0.0000;
	81	109	0	0.02456	0	1200	1200	1200	1	0	1	-360	360	0.0000	0.0000	0.0000	0.0000	0.0000	0.0000	0.0000	0.0000;
	82	190	0	0.03433	0	3200	3200	3200	1	0	1	-360	360	0.0000	0.0000	0.0000	0.0000	0.0000	0.0000	0.0000	0.0000;
	118	32	0	0.03238	0	800	800	800	1	0	1	-360	360	0.0000	0.0000	0.0000	0.0000	0.0000	0.0000	0.0000	0.0000;
	91	42	0	0.0118	0	1600	1600	1600	1	0	1	-360	360	0.0000	0.0000	0.0000	0.0000	0.0000	0.0000	0.0000	0.0000;
	62	222	0	0.00994	0	3600	3600	3600	1	0	1	-360	360	0.0000	0.0000	0.0000	0.0000	0.0000	0.0000	0.0000	0.0000;
	10	176	0	0.00459	0	4000	4000	4000	1	0	1	-360	360	0.0000	0.0000	0.0000	0.0000	0.0000	0.0000	0.0000	0.0000;
	97	115	0	0.01719	0	800	800	800	1	0	1	-360	360	0.0000	0.0000	0.0000	0.0000	0.0000	0.0000	0.0000	0.0000;
	95	93	0	0.0049	0	2000	2000	2000	1	0	1	-360	360	0.0000	0.0000	0.0000	0.0000	0.0000	0.0000	0.0000	0.0000;
	16	89	0	0.01724	0	800	800	800	1	0	1	-360	360	0.0000	0.0000	0.0000	0.0000	0.0000	0.0000	0.0000	0.0000;
	184	175	0	0.01517	0	1200	1200	1200	1	0	1	-360	360	0.0000	0.0000	0.0000	0.0000	0.0000	0.0000	0.0000	0.0000;
	10	162	0	0.02902	0	800	800	800	1	0	1	-360	360	0.0000	0.0000	0.0000	0.0000	0.0000	0.0000	0.0000	0.0000;
	112	82	0	0.04978	0	800	800	800	1	0	1	-360	360	0.0000	0.0000	0.0000	0.0000	0.0000	0.0000	0.0000	0.0000;
	167	137	0	0.0233	0	2000	2000	2000	1	0	1	-360	360	0.0000	0.0000	0.0000	0.0000	0.0000	0.0000	0.0000	0.0000;
	195	193	0	0.04117	0	800	800	800	1	0	1	-360	360	0.0000	0.0000	0.0000	0.0000	0.0000	0.0000	0.0000	0.0000;
	95	60	0	0.08045	0	1200	1200	1200	1	0	1	-360	360	0.0000	0.0000	0.0000	0.0000	0.0000	0.0000	0.0000	0.0000;
	74	225	0	0.00438	0	4000	4000	4000	1	0	1	-360	360	0.0000	0.0000	0.0000	0.0000	0.0000	0.0000	0.0000	0.0000;
	167	127	0	0.01225	0	2000	2000	2000	1	0	1	-360	360	0.0000	0.0000	0.0000	0.0000	0.0000	0.0000	0.0000	0.0000;
	165	149	0	0.0153	0	3200	3200	3200	1	0	1	-360	360	0.0000	0.0000	0.0000	0.0000	0.0000	0.0000	0.0000	0.0000;
	82	199	0	0.00976	0	2000	2000	2000	1	0	1	-360	360	0.0000	0.0000	0.0000	0.0000	0.0000	0.0000	0.0000	0.0000;
	169	99	0	0.01142	0	1200	1200	1200	1	0	1	-360	360	0.0000	0.0000	0.0000	0.0000	0.0000	0.0000	0.0000	0.0000;
	171	40	0	0.023	0	1200	1200	1200	1	0	1	-360	360	0.0000	0.0000	0.0000	0.0000	0.0000	0.0000	0.0000	0.0000;
	220	186	0	0.00496	0	800	800	800	1	0	1	-360	360	0.0000	0.0000	0.0000	0.0000	0.0000	0.0000	0.0000	0.0000;
	20	59	0	0.0428	0	800	800	800	1	0	1	-360	360	0.0000	0.0000	0.0000	0.0000	0.0000	0.0000	0.0000	0.0000;
	5	194	0	0.02984	0	800	800	800	1	0	1	-360	360	0.0000	0.0000	0.0000	0.0000	0.0000	0.0000	0.0000	0.0000;
	42	15	0	0.00935	0	800	800	800	1	0	1	-360	360	0.0000	0.0000	0.0000	0.0000	0.0000	0.0000	0.0000	0.0000;
	72	223	0	0.03292	0	800	800	800	1	0	1	-360	360	0.0000	0.0000	0.0000	0.0000	0.0000	0.0000	0.0000	0.0000;
	204	209	0	0.02043	0	800	800	800	1	0	1	-360	360	0.0000	0.0000	0.0000	0.0000	0.0000	0.0000	0.0000	0.0000;
	205	181	0	0.0047	0	2400	2400	2400	1	0	1	-360	360	0.0000	0.0000	0.0000	0.0000	0.0000	0.0000	0.0000	0.0000;
	106	31	0	0.01042	0	2400	2400	2400	1	0	1	-360	360	0.0000	0.0000	0.0000	0.0000	0.0000	0.0000	0.0000	0.0000;
	153	133	0	0.01026	0	2400	2400	2400	1	0	1	-360	360	0.0000	0.0000	0.0000	0.0000	0.0000	0.0000	0.0000	0.0000;
	219	177	0	0.02589	0	800	800	800	1	0	1	-360	360	0.0000	0.0000	0.0000	0.0000	0.0000	0.0000	0.0000	0.0000;
	117	92	0	0.01818	0	2400	2400	2400	1	0	1	-360	360	0.0000	0.0000	0.0000	0.0000	0.0000	0.0000	0.0000	0.0000;
	87	198	0	0.02416	0	800	800	800	1	0	1	-360	360	0.0000	0.0000	0.0000	0.0000	0.0000	0.0000	0.0000	0.0000;
	153	230	0	0.0216	0	1600	1600	1600	1	0	1	-360	360	0.0000	0.0000	0.0000	0.0000	0.0000	0.0000	0.0000	0.0000;
	187	85	0	0.00888	0	4000	4000	4000	1	0	1	-360	360	0.0000	0.0000	0.0000	0.0000	0.0000	0.0000	0.0000	0.0000;
	79	112	0	0.01706	0	800	800	800	1	0	1	-360	360	0.0000	0.0000	0.0000	0.0000	0.0000	0.0000	0.0000	0.0000;
	228	221	0	0.05996	0	800	800	800	1	0	1	-360	360	0.0000	0.0000	0.0000	0.0000	0.0000	0.0000	0.0000	0.0000;
	117	45	0	0.01898	0	800	800	800	1	0	1	-360	360	0.0000	0.0000	0.0000	0.0000	0.0000	0.0000	0.0000	0.0000;
	119	92	0	0.03555	0	1600	1600	1600	1	0	1	-360	360	0.0000	0.0000	0.0000	0.0000	0.0000	0.0000	0.0000	0.0000;
	176	141	0	0.00815	0	1200	1200	1200	1	0	1	-360	360	0.0000	0.0000	0.0000	0.0000	0.0000	0.0000	0.0000	0.0000;
	36	23	0	0.01745	0	1200	1200	1200	1	0	1	-360	360	0.0000	0.0000	0.0000	0.0000	0.0000	0.0000	0.0000	0.0000;
	118	122	0	0.02777	0	800	800	800	1	0	1	-360	360	0.0000	0.0000	0.0000	0.0000	0.0000	0.0000	0.0000	0.0000;
	37	38	0	0.01361	0	2000	2000	2000	1	0	1	-360	360	0.0000	0.0000	0.0000	0.0000	0.0000	0.0000	0.0000	0.0000;
	129	136	0	0.01156	0	4000	4000	4000	1	0	1	-360	360	0.0000	0.0000	0.0000	0.0000	0.0000	0.0000	0.0000	0.0000;
	216	211	0	0.03986	0	2000	2000	2000	1	0	1	-360	360	0.0000	0.0000	0.0000	0.0000	0.0000	0.0000	0.0000	0.0000;
	118	12	0	0.01501	0	1600	1600	1600	1	0	1	-360	360	0.0000	0.0000	0.0000	0.0000	0.0000	0.0000	0.0000	0.0000;
	182	167	0	0.02829	0	3200	3200	3200	1	0	1	-360	360	0.0000	0.0000	0.0000	0.0000	0.0000	0.0000	0.0000	0.0000;
	26	61	0	0.01087	0	2000	2000	2000	1	0	1	-360	360	0.0000	0.0000	0.0000	0.0000	0.0000	0.0000	0.0000	0.0000;
	193	84	0	0.00758	0	1200	1200	1200	1	0	1	-360	360	0.0000	0.0000	0.0000	0.0000	0.0000	0.0000	0.0000	0.0000;
	73	227	0	0.01032	0	4000	4000	4000	1	0	1	-360	360	0.0000	0.0000	0.0000	0.0000	0.0000	0.0000	0.0000	0.0000;
	56	126	0	0.01097	0	2000	2000	2000	1	0	1	-360	360	0.0000	0.0000	0.0000	0.0000	0.0000	0.0000	0.0000	0.0000;
	222	173	0	0.01139	0	800	800	800	1	0	1	-360	360	0.0000	0.0000	0.0000	0.0000	0.0000	0.0000	0.0000	0.0000;
	61	128	0	0.0095	0	2800	2800	2800	1	0	1	-360	360	0.0000	0.0000	0.0000	0.0000	0.0000	0.0000	0.0000	0.0000;
	104	220	0	0.00484	0	1600	1600	1600	1	0	1	-360	360	0.0000	0.0000	0.0000	0.0000	0.0000	0.0000	0.0000	0.0000;
	194	83	0	0.05271	0	2400	2400	2400	1	0	1	-360	360	0.0000	0.0000	0.0000	0.0000	0.0000	0.0000	0.0000	0.0000;
	14	116	0	0.00706	0	1600	1600	1600	1	0	1	-360	360	0.0000	0.0000	0.0000	0.0000	0.0000	0.0000	0.0000	0.0000;
	206	205	0	0.00837	0	1600	1600	1600	1	0	1	-360	360	0.0000	0.0000	0.0000	0.0000	0.0000	0.0000	0.0000	0.0000;
	115	46	0	0.02603	0	1200	1200	1200	1	0	1	-360	360	0.0000	0.0000	0.0000	0.0000	0.0000	0.0000	0.0000	0.0000;
	225	230	0	0.00757	0	3600	3600	3600	1	0	1	-360	360	0.0000	0.0000	0.0000	0.0000	0.0000	0.0000	0.0000	0.0000;
	132	128	0	0.00808	0	2400	2400	2400	1	0	1	-360	360	0.0000	0.0000	0.0000	0.0000	0.0000	0.0000	0.0000	0.0000;
	126	22	0	0.03457	0	1200	1200	1200	1	0	1	-360	360	0.0000	0.0000	0.0000	0.0000	0.0000	0.0000	0.0000	0.0000;
	83	43	0	0.04365	0	800	800	800	1	0	1	-360	360	0.0000	0.0000	0.0000	0.0000	0.0000	0.0000	0.0000	0.0000;
	226	154	0	0.01575	0	800	800	800	1	0	1	-360	360	0.0000	0.0000	0.0000	0.0000	0.0000	0.0000	0.0000	0.0000;
	224	157	0	0.00524	0	800	800	800	1	0	1	-360	360	0.0000	0.0000	0.0000	0.0000	0.0000	0.0000	0.0000	0.0000;
	227	221	0	0.01147	0	4000	4000	4000	1	0	1	-360	360	0.0000	0.0000	0.0000	0.0000	0.0000	0.0000	0.0000	0.0000;
	123	67	0	0.00852	0	1200	1200	1200	1	0	1	-360	360	0.0000	0.0000	0.0000	0.0000	0.0000	0.0000	0.0000	0.0000;
	232	67	0	0.00955	0	800	800	800	1	0	1	-360	360	0.0000	0.0000	0.0000	0.0000	0.0000	0.0000	0.0000	0.0000;
	72	70	0	0.02045	0	800	800	800	1	0	1	-360	360	0.0000	0.0000	0.0000	0.0000	0.0000	0.0000	0.0000	0.0000;
	112	146	0	0.01091	0	1600	1600	1600	1	0	1	-360	360	0.0000	0.0000	0.0000	0.0000	0.0000	0.0000	0.0000	0.0000;
	94	15	0	0.00325	0	1200	1200	1200	1	0	1	-360	360	0.0000	0.0000	0.0000	0.0000	0.0000	0.0000	0.0000	0.0000;
	182	179	0	0.00528	0	1600	1600	1600	1	0	1	-360	360	0.0000	0.0000	0.0000	0.0000	0.0000	0.0000	0.0000	0.0000;
	11	77	0	0.02296	0	1200	1200	1200	1	0	1	-360	360	0.0000	0.0000	0.0000	0.0000	0.0000	0.0000	0.0000	0.0000;
	78	194	0	0.01425	0	3200	3200	3200	1	0	1	-360	360	0.0000	0.0000	0.0000	0.0000	0.0000	0.0000	0.0000	0.0000;
	19	90	0	0.00334	0	1600	1600	1600	1	0	1	-360	360	0.0000	0.0000	0.0000	0.0000	0.0000	0.0000	0.0000	0.0000;
	3	169	0	0.01122	0	4000	4000	4000	1	0	1	-360	360	0.0000	0.0000	0.0000	0.0000	0.0000	0.0000	0.0000	0.0000;
	125	28	0	0.00867	0	1600	1600	1600	1	0	1	-360	360	0.0000	0.0000	0.0000	0.0000	0.0000	0.0000	0.0000	0.0000;
	100	6	0	0.01041	0	800	800	800	1	0	1	-360	360	0.0000	0.0000	0.0000	0.0000	0.0000	0.0000	0.0000	0.0000;
	10	184	0	0.03467	0	800	800	800	1	0	1	-360	360	0.0000	0.0000	0.0000	0.0000	0.0000	0.0000	0.0000	0.0000;
	157	208	0	0.00944	0	1600	1600	1600	1	0	1	-360	360	0.0000	0.0000	0.0000	0.0000	0.0000	0.0000	0.0000	0.0000;
];

%%%% generator data
%%	bus	Pg	Qg	Qmax	Qmin	Vg	mBase	status	Pmax	Pmin	mu_Pmax	mu_Pmin	mu_Qmax	mu_Qmin
mpc.gen = [
	140	0	0	0	0	1	400	1	600	0	0	0	0	0;
	132	0	0	0	0	1	400	1	432	0	0	0	0	0;
	204	0	0	0	0	1	400	1	361	0	0	0	0	0;
	180	0	0	0	0	1	400	1	1200	0	0	0	0	0;
	95	0	0	0	0	1	400	1	860	0	0	0	0	0;
	214	0	0	0	0	1	400	1	343	0	0	0	0	0;
	11	0	0	0	0	1	400	1	100	0	0	0	0	0;
	204	0	0	0	0	1	400	1	1410	0	0	0	0	0;
	193	0	0	0	0	1	400	1	772	0	0	0	0	0;
	97	0	0	0	0	1	400	1	670	0	0	0	0	0;
	173	0	0	0	0	1	400	1	343	0	0	0	0	0;
	125	0	0	0	0	1	400	1	840	0	0	0	0	0;
	91	0	0	0	0	1	400	1	2260	0	0	0	0	0;
	215	0	0	0	0	1	400	1	508	0	0	0	0	0;
	15	0	0	0	0	1	400	1	840	0	0	0	0	0;
	54	0	0	0	0	1	400	1	3400	0	0	0	0	0;
	190	0	0	0	0	1	400	1	2850	0	0	0	0	0;
	48	0	0	0	0	1	400	1	500	0	0	0	0	0;
	190	0	0	0	0	1	400	1	2282	0	0	0	0	0;
	19	0	0	0	0	1	400	1	1100	0	0	0	0	0;
	93	0	0	0	0	1	400	1	1500	0	0	0	0	0;
	130	0	0	0	0	1	400	1	1000	0	0	0	0	0;
	19	0	0	0	0	1	400	1	400	0	0	0	0	0;
	79	0	0	0	0	1	400	1	1350	0	0	0	0	0;
	181	0	0	0	0	1	400	1	200	0	0	0	0	0;
	158	0	0	0	0	1	400	1	430	0	0	0	0	0;
	176	0	0	0	0	1	400	1	400	0	0	0	0	0;
	95	0	0	0	0	1	400	1	4000	0	0	0	0	0;
	60	0	0	0	0	1	400	1	2240	0	0	0	0	0;
	136	0	0	0	0	1	400	1	1000	0	0	0	0	0;
	200	0	0	0	0	1	400	1	771	0	0	0	0	0;
	187	0	0	0	0	1	400	1	2386	0	0	0	0	0;
	52	0	0	0	0	1	400	1	800	0	0	0	0	0;
	56	0	0	0	0	1	400	1	4450	0	0	0	0	0;
	143	0	0	0	0	1	400	1	500	0	0	0	0	0;
	107	0	0	0	0	1	400	1	650	0	0	0	0	0;
	107	0	0	0	0	1	400	1	1160	0	0	0	0	0;
	200	0	0	0	0	1	400	1	430	0	0	0	0	0;
	86	0	0	0	0	1	400	1	1937	0	0	0	0	0;
	211	0	0	0	0	1	400	1	2500	0	0	0	0	0;
	42	0	0	0	0	1	400	1	1266	0	0	0	0	0;
	32	0	0	0	0	1	400	1	2000	0	0	0	0	0;
	115	0	0	0	0	1	400	1	165	0	0	0	0	0;
	159	0	0	0	0	1	400	1	160	0	0	0	0	0;
	108	0	0	0	0	1	400	1	364	0	0	0	0	0;
	29	0	0	0	0	1	400	1	1000	0	0	0	0	0;
	128	0	0	0	0	1	400	1	2620	0	0	0	0	0;
	144	0	0	0	0	1	400	1	1345	0	0	0	0	0;
	179	0	0	0	0	1	400	1	300	0	0	0	0	0;
	44	0	0	0	0	1	400	1	650	0	0	0	0	0;
	59	0	0	0	0	1	400	1	2140	0	0	0	0	0;
	108	0	0	0	0	1	400	1	800	0	0	0	0	0;
	153	0	0	0	0	1	400	1	1200	0	0	0	0	0;
	158	0	0	0	0	1	400	1	4700	0	0	0	0	0;
	175	0	0	0	0	1	400	1	1000	0	0	0	0	0;
	125	0	0	0	0	1	400	1	1329	0	0	0	0	0;
	12	0	0	0	0	1	400	1	700	0	0	0	0	0;
	27	0	0	0	0	1	400	1	500	0	0	0	0	0;
	52	0	0	0	0	1	400	1	2500	0	0	0	0	0;
	195	0	0	0	0	1	400	1	2572	0	0	0	0	0;
	165	0	0	0	0	1	400	1	296	0	0	0	0	0;
	150	0	0	0	0	1	400	1	400	0	0	0	0	0;
	103	0	0	0	0	1	400	1	750	0	0	0	0	0;
	103	0	0	0	0	1	400	1	2350	0	0	0	0	0;
	208	0	0	0	0	1	400	1	1275	0	0	0	0	0;
	231	0	0	0	0	1	400	1	450	0	0	0	0	0;
	215	0	0	0	0	1	400	1	1294	0	0	0	0	0;
	108	0	0	0	0	1	400	1	858	0	0	0	0	0;
	18	0	0	0	0	1	400	1	500	0	0	0	0	0;
	123	0	0	0	0	1	400	1	2450	0	0	0	0	0;
	106	0	0	0	0	1	400	1	2572	0	0	0	0	0;
	73	0	0	0	0	1	400	1	5211	0	0	0	0	0;
	148	0	0	0	0	1	400	1	500	0	0	0	0	0;
	167	0	0	0	0	1	400	1	690	0	0	0	0	0;
	181	0	0	0	0	1	400	1	200	0	0	0	0	0;
	144	0	0	0	0	1	400	1	400	0	0	0	0	0;
	180	0	0	0	0	1	400	1	5438	0	0	0	0	0;
	31	0	0	0	0	1	400	1	2100	0	0	0	0	0;
	153	0	0	0	0	1	400	1	300	0	0	0	0	0;
	189	0	0	0	0	1	400	1	3500	0	0	0	0	0;
	209	0	0	0	0	1	400	1	820	0	0	0	0	0;
	232	0	0	0	0	1	400	1	1350	0	0	0	0	0;
];

%%%% generator cost data
%%	1	startup	shutdown	n	x1	y1	...	xn	yn
%%	2	startup	shutdown	n	c(n-1)	...	c0
mpc.gencost = [
	2	0	0	2	18.89	6420.01;
	2	0	0	2	16.4	4224.16;
	2	0	0	2	37.56	32764.7;
	2	0	0	2	29.73	19601;
	2	0	0	2	69.26	117427;
	2	0	0	2	15.47	3484.98;
	2	0	0	2	11.48	795.64;
	2	0	0	2	37.56	32764.7;
	2	0	0	2	19.97	7471.56;
	2	0	0	2	19.93	7426.36;
	2	0	0	2	15.58	3572.22;
	2	0	0	2	36.02	29936.4;
	2	0	0	2	43.48	44768.2;
	2	0	0	2	14.69	2894.9;
	2	0	0	2	22.44	10094.2;
	2	0	0	2	50.37	60933.2;
	2	0	0	2	48.69	56772;
	2	0	0	2	17.95	5559.12;
	2	0	0	2	48.69	56772;
	2	0	0	2	26.3	14788;
	2	0	0	2	32.22	23457.9;
	2	0	0	2	14.89	3040.01;
	2	0	0	2	26.3	14788;
	2	0	0	2	34.1	26578.7;
	2	0	0	2	12.96	1701.02;
	2	0	0	2	79.63	156030;
	2	0	0	2	15.93	3841.02;
	2	0	0	2	69.26	117427;
	2	0	0	2	49.4	58515.6;
	2	0	0	2	22.82	10513.4;
	2	0	0	2	23.11	10856.9;
	2	0	0	2	50.02	60041.1;
	2	0	0	2	43.13	44003.3;
	2	0	0	2	75.93	141626;
	2	0	0	2	12.44	1370.78;
	2	0	0	2	30.51	20778.7;
	2	0	0	2	30.51	20778.7;
	2	0	0	2	23.11	10856.9;
	2	0	0	2	46.03	50462.6;
	2	0	0	2	17.92	5524.42;
	2	0	0	2	28.76	18172.9;
	2	0	0	2	21.77	9351.02;
	2	0	0	2	12.44	1371.65;
	2	0	0	2	12.37	1325.7;
	2	0	0	2	17.9	5508.25;
	2	0	0	2	14.84	3006.16;
	2	0	0	2	22.8	10498.2;
	2	0	0	2	36.29	30419.3;
	2	0	0	2	11.47	786.66;
	2	0	0	2	19.63	7133.35;
	2	0	0	2	41.7	40982;
	2	0	0	2	17.9	5508.25;
	2	0	0	2	11.47	786.66;
	2	0	0	2	79.63	156030;
	2	0	0	2	30	20000;
	2	0	0	2	36.02	29936.4;
	2	0	0	2	13.42	2002.66;
	2	0	0	2	18.44	6003.72;
	2	0	0	2	43.13	44003.3;
	2	0	0	2	59.15	84972.9;
	2	0	0	2	14.39	2673.43;
	2	0	0	2	11.95	1072.75;
	2	0	0	2	15.73	3685.67;
	2	0	0	2	15.73	3685.67;
	2	0	0	2	28.52	17833.3;
	2	0	0	2	12.2	1220.27;
	2	0	0	2	14.69	2894.9;
	2	0	0	2	17.9	5508.25;
	2	0	0	2	15.45	3470.02;
	2	0	0	2	21.97	9568.45;
	2	0	0	2	59.93	87300.3;
	2	0	0	2	99.71	246062;
	2	0	0	2	15.41	3434.88;
	2	0	0	2	20.22	7723.77;
	2	0	0	2	12.96	1701.02;
	2	0	0	2	36.29	30419.3;
	2	0	0	2	29.73	19601;
	2	0	0	2	50.88	62230.4;
	2	0	0	2	11.47	786.66;
	2	0	0	2	61.85	93146.2;
	2	0	0	2	22.15	9763.92;
	2	0	0	2	33.75	25971.8;
];
